applications/pyvvo/app/pmaps/models/R2_12_47_2_populated.glm
// Created by using modifyGLMs/aepExperiment.py from Jacob Hansen
clock {
	timezone PST8;
	starttime '2013-07-01 0:00:00';
	stoptime '2013-08-01 0:00:00';
}

#include "../include/schedules/appliance_schedules.glm"
#include "../include/schedules/water_and_setpoint_schedule_v5.glm"
#include "../include/schedules/commercial_schedules.glm"
#define stylesheet=http://gridlab-d.svn.sourceforge.net/viewvc/gridlab-d/trunk/core/gridlabd-2_0

#set minimum_timestep=30.000000
#set profiler=1
#set relax_naming_rules=1
#set randomseed=10
#set suppress_repeat_messages=1
module market {
}

module tape {
}

module climate {
}

module residential {
	implicit_enduses NONE;
}

module powerflow {
	solver_method NR;
	NR_iteration_limit 100;
	line_limits FALSE;
}

object climate {
	name ClimateWeather;
	interpolate QUADRATIC;
	tmyfile ../include/weather/IL-Chicago.tmy2;
};

object transformer_configuration {
	name trans_config_to_feeder;
	primary_voltage 230000;
	install_type PADMOUNT;
	impedance 0.00033+0.0022j;
	secondary_voltage 12470;
	connect_type WYE_WYE;
	power_rating 6.6 MVA;
};

object meter {
	phases ABCN;
	nominal_voltage 230000;
	name network_node;
	bustype SWING;
};

object player {
	property voltage_A;
	file ../include/players/V_A.player;
	loop 100;
	parent network_node;
};

object player {
	property voltage_B;
	file ../include/players/V_B.player;
	loop 100;
	parent network_node;
};

object player {
	property voltage_C;
	file ../include/players/V_C.player;
	loop 100;
	parent network_node;
};

object transformer {
	phases ABCN;
	from network_node;
	name substation_transformer;
	to R2-12-47-2_node_253;
	configuration trans_config_to_feeder;
	groupid Distribution_Trans;
};

object regulator {
	phases ABCN;
	from R2-12-47-2_node_253;
	name R2-12-47-2_reg_1;
	to R2-12-47-2_meter_9;
	configuration feeder_reg_cfg;
};

object regulator {
	phases ABCN;
	from R2-12-47-2_node_146_2;
	name R2-12-47-2_reg_2;
	to R2-12-47-2_node_90;
	configuration voltage_reg_cfg;
};

object regulator_configuration {
	Control OUTPUT_VOLTAGE;
	raise_taps 16;
	name feeder_reg_cfg;
	band_center 7500.0;
	tap_pos_A 0;
	tap_pos_B 0;
	connect_type WYE_WYE;
	time_delay 30;
	regulation 0.10;
	band_width 120;
	tap_pos_C 0;
	lower_taps 16;
};

object regulator_configuration {
	Control OUTPUT_VOLTAGE;
	raise_taps 16;
	name voltage_reg_cfg;
	band_center 7500.0;
	tap_pos_A 0;
	tap_pos_B 0;
	connect_type WYE_WYE;
	time_delay 30;
	regulation 0.10;
	band_width 120;
	tap_pos_C 0;
	lower_taps 16;
};

object capacitor {
	control VOLT;
	phases ABCN;
	name R2-12-47-2_cap_1;
	parent R2-12-47-2_node_6;
	capacitor_B 0.4 MVAr;
	capacitor_C 0.4 MVAr;
	phases_connected ABC;
	capacitor_A 0.4 MVAr;
	time_delay 30.0;
	nominal_voltage 7200;
	cap_nominal_voltage 7200;
	voltage_set_low 7100;
	control_level INDIVIDUAL;
	pt_phase C;
	dwell_time 30.0;
	voltage_set_high 7300;
};

object capacitor {
	control VOLT;
	phases ABCN;
	name R2-12-47-2_cap_2;
	parent R2-12-47-2_node_90;
	capacitor_B 0.3 MVAr;
	capacitor_C 0.3 MVAr;
	phases_connected ABC;
	capacitor_A 0.3 MVAr;
	time_delay 30.0;
	nominal_voltage 7200;
	cap_nominal_voltage 7200;
	voltage_set_low 7100;
	control_level INDIVIDUAL;
	pt_phase C;
	dwell_time 30.0;
	voltage_set_high 7300;
};

object capacitor {
	control VOLT;
	phases ABCN;
	name R2-12-47-2_cap_3;
	parent R2-12-47-2_node_7;
	capacitor_B 0.4 MVAr;
	capacitor_C 0.4 MVAr;
	phases_connected ABC;
	capacitor_A 0.4 MVAr;
	time_delay 30.0;
	nominal_voltage 7200;
	cap_nominal_voltage 7200;
	voltage_set_low 7100;
	control_level INDIVIDUAL;
	pt_phase C;
	dwell_time 30.0;
	voltage_set_high 7300;
};

object capacitor {
	control VOLT;
	phases ABCN;
	name R2-12-47-2_cap_4;
	parent R2-12-47-2_node_59;
	capacitor_B 0.4 MVAr;
	capacitor_C 0.4 MVAr;
	phases_connected ABC;
	capacitor_A 0.4 MVAr;
	time_delay 30.0;
	nominal_voltage 7200;
	cap_nominal_voltage 7200;
	voltage_set_low 7100;
	control_level INDIVIDUAL;
	pt_phase C;
	dwell_time 30.0;
	voltage_set_high 7300;
};

object fuse {
	status CLOSED;
	phases AN;
	from R2-12-47-2_node_1;
	name R2-12-47-2_fuse_1;
	current_limit 50000;
	to R2-12-47-2_node_246;
	mean_replacement_time 3600.0;
};

object fuse {
	status CLOSED;
	phases BN;
	from R2-12-47-2_node_8;
	name R2-12-47-2_fuse_2;
	current_limit 50000;
	to R2-12-47-2_node_100;
	mean_replacement_time 3600.0;
};

object fuse {
	status CLOSED;
	phases CN;
	from R2-12-47-2_node_11;
	name R2-12-47-2_fuse_3;
	current_limit 50000;
	to R2-12-47-2_node_98;
	mean_replacement_time 3600.0;
};

object fuse {
	status CLOSED;
	phases CN;
	from R2-12-47-2_node_12;
	name R2-12-47-2_fuse_4;
	current_limit 50000;
	to R2-12-47-2_node_99;
	mean_replacement_time 3600.0;
};

object fuse {
	status CLOSED;
	phases BN;
	from R2-12-47-2_node_13;
	name R2-12-47-2_fuse_5;
	current_limit 50000;
	to R2-12-47-2_node_101;
	mean_replacement_time 3600.0;
};

object fuse {
	status CLOSED;
	phases BCN;
	from R2-12-47-2_node_15;
	name R2-12-47-2_fuse_6;
	current_limit 50000;
	to R2-12-47-2_node_248;
	mean_replacement_time 3600.0;
};

object fuse {
	status CLOSED;
	phases AN;
	from R2-12-47-2_node_16;
	name R2-12-47-2_fuse_7;
	current_limit 50000;
	to R2-12-47-2_node_113;
	mean_replacement_time 3600.0;
};

object fuse {
	status CLOSED;
	phases ABCN;
	from R2-12-47-2_node_17;
	name R2-12-47-2_fuse_8;
	current_limit 50000;
	to R2-12-47-2_node_9;
	mean_replacement_time 3600.0;
};

object fuse {
	status CLOSED;
	phases ABCN;
	from R2-12-47-2_node_19;
	name R2-12-47-2_fuse_9;
	current_limit 50000;
	to R2-12-47-2_node_18;
	mean_replacement_time 3600.0;
};

object fuse {
	status CLOSED;
	phases AN;
	from R2-12-47-2_node_23;
	name R2-12-47-2_fuse_10;
	current_limit 50000;
	to R2-12-47-2_node_109;
	mean_replacement_time 3600.0;
};

object fuse {
	status CLOSED;
	phases AN;
	from R2-12-47-2_node_24;
	name R2-12-47-2_fuse_11;
	current_limit 50000;
	to R2-12-47-2_node_21;
	mean_replacement_time 3600.0;
};

object fuse {
	status CLOSED;
	phases CN;
	from R2-12-47-2_node_28;
	name R2-12-47-2_fuse_12;
	current_limit 50000;
	to R2-12-47-2_node_29;
	mean_replacement_time 3600.0;
};

object fuse {
	status CLOSED;
	phases AN;
	from R2-12-47-2_node_32;
	name R2-12-47-2_fuse_13;
	current_limit 50000;
	to R2-12-47-2_node_154;
	mean_replacement_time 3600.0;
};

object fuse {
	status CLOSED;
	phases ABN;
	from R2-12-47-2_node_33;
	name R2-12-47-2_fuse_14;
	current_limit 50000;
	to R2-12-47-2_node_30;
	mean_replacement_time 3600.0;
};

object fuse {
	status CLOSED;
	phases ABCN;
	from R2-12-47-2_node_36;
	name R2-12-47-2_fuse_15;
	current_limit 50000;
	to R2-12-47-2_node_102;
	mean_replacement_time 3600.0;
};

object fuse {
	status CLOSED;
	phases AN;
	from R2-12-47-2_node_37;
	name R2-12-47-2_fuse_16;
	current_limit 50000;
	to R2-12-47-2_node_132;
	mean_replacement_time 3600.0;
};

object fuse {
	status CLOSED;
	phases AN;
	from R2-12-47-2_node_39;
	name R2-12-47-2_fuse_17;
	current_limit 50000;
	to R2-12-47-2_node_131;
	mean_replacement_time 3600.0;
};

object fuse {
	status CLOSED;
	phases CN;
	from R2-12-47-2_node_40;
	name R2-12-47-2_fuse_18;
	current_limit 50000;
	to R2-12-47-2_node_229;
	mean_replacement_time 3600.0;
};

object fuse {
	status CLOSED;
	phases ACN;
	from R2-12-47-2_node_42;
	name R2-12-47-2_fuse_19;
	current_limit 50000;
	to R2-12-47-2_node_67;
	mean_replacement_time 3600.0;
};

object fuse {
	status CLOSED;
	phases ABCN;
	from R2-12-47-2_node_42;
	name R2-12-47-2_fuse_20;
	current_limit 50000;
	to R2-12-47-2_node_103;
	mean_replacement_time 3600.0;
};

object fuse {
	status CLOSED;
	phases CN;
	from R2-12-47-2_node_44;
	name R2-12-47-2_fuse_21;
	current_limit 50000;
	to R2-12-47-2_node_50;
	mean_replacement_time 3600.0;
};

object fuse {
	status CLOSED;
	phases CN;
	from R2-12-47-2_node_46;
	name R2-12-47-2_fuse_22;
	current_limit 50000;
	to R2-12-47-2_node_49;
	mean_replacement_time 3600.0;
};

object fuse {
	status CLOSED;
	phases BN;
	from R2-12-47-2_node_47;
	name R2-12-47-2_fuse_23;
	current_limit 50000;
	to R2-12-47-2_node_207;
	mean_replacement_time 3600.0;
};

object fuse {
	status CLOSED;
	phases BN;
	from R2-12-47-2_node_48;
	name R2-12-47-2_fuse_24;
	current_limit 50000;
	to R2-12-47-2_node_211;
	mean_replacement_time 3600.0;
};

object fuse {
	status CLOSED;
	phases BN;
	from R2-12-47-2_node_54;
	name R2-12-47-2_fuse_25;
	current_limit 50000;
	to R2-12-47-2_node_231;
	mean_replacement_time 3600.0;
};

object fuse {
	status CLOSED;
	phases BN;
	from R2-12-47-2_node_55;
	name R2-12-47-2_fuse_26;
	current_limit 50000;
	to R2-12-47-2_node_228;
	mean_replacement_time 3600.0;
};

object fuse {
	status CLOSED;
	phases BN;
	from R2-12-47-2_node_56;
	name R2-12-47-2_fuse_27;
	current_limit 50000;
	to R2-12-47-2_node_55;
	mean_replacement_time 3600.0;
};

object fuse {
	status CLOSED;
	phases ABCN;
	from R2-12-47-2_node_57;
	name R2-12-47-2_fuse_28;
	current_limit 50000;
	to R2-12-47-2_node_63;
	mean_replacement_time 3600.0;
};

object fuse {
	status CLOSED;
	phases BN;
	from R2-12-47-2_node_62;
	name R2-12-47-2_fuse_29;
	current_limit 50000;
	to R2-12-47-2_node_226;
	mean_replacement_time 3600.0;
};

object fuse {
	status CLOSED;
	phases CN;
	from R2-12-47-2_node_64;
	name R2-12-47-2_fuse_30;
	current_limit 50000;
	to R2-12-47-2_node_225;
	mean_replacement_time 3600.0;
};

object fuse {
	status CLOSED;
	phases CN;
	from R2-12-47-2_node_65;
	name R2-12-47-2_fuse_31;
	current_limit 50000;
	to R2-12-47-2_node_66;
	mean_replacement_time 3600.0;
};

object fuse {
	status CLOSED;
	phases AN;
	from R2-12-47-2_node_68;
	name R2-12-47-2_fuse_32;
	current_limit 50000;
	to R2-12-47-2_node_205;
	mean_replacement_time 3600.0;
};

object fuse {
	status CLOSED;
	phases ABCN;
	from R2-12-47-2_node_69;
	name R2-12-47-2_fuse_33;
	current_limit 50000;
	to R2-12-47-2_node_183;
	mean_replacement_time 3600.0;
};

object fuse {
	status CLOSED;
	phases CN;
	from R2-12-47-2_node_72;
	name R2-12-47-2_fuse_34;
	current_limit 50000;
	to R2-12-47-2_node_153;
	mean_replacement_time 3600.0;
};

object fuse {
	status CLOSED;
	phases BN;
	from R2-12-47-2_node_72;
	name R2-12-47-2_fuse_35;
	current_limit 50000;
	to R2-12-47-2_node_155;
	mean_replacement_time 3600.0;
};

object fuse {
	status CLOSED;
	phases AN;
	from R2-12-47-2_node_73;
	name R2-12-47-2_fuse_36;
	current_limit 50000;
	to R2-12-47-2_node_175;
	mean_replacement_time 3600.0;
};

object fuse {
	status CLOSED;
	phases CN;
	from R2-12-47-2_node_74;
	name R2-12-47-2_fuse_37;
	current_limit 50000;
	to R2-12-47-2_node_177;
	mean_replacement_time 3600.0;
};

object fuse {
	status CLOSED;
	phases BN;
	from R2-12-47-2_node_81;
	name R2-12-47-2_fuse_38;
	current_limit 50000;
	to R2-12-47-2_node_126;
	mean_replacement_time 3600.0;
};

object fuse {
	status CLOSED;
	phases AN;
	from R2-12-47-2_node_87;
	name R2-12-47-2_fuse_39;
	current_limit 50000;
	to R2-12-47-2_node_201;
	mean_replacement_time 3600.0;
};

object fuse {
	status CLOSED;
	phases CN;
	from R2-12-47-2_node_88;
	name R2-12-47-2_fuse_40;
	current_limit 50000;
	to R2-12-47-2_node_190;
	mean_replacement_time 3600.0;
};

object fuse {
	status CLOSED;
	phases AN;
	from R2-12-47-2_node_88;
	name R2-12-47-2_fuse_41;
	current_limit 50000;
	to R2-12-47-2_node_195;
	mean_replacement_time 3600.0;
};

object fuse {
	status CLOSED;
	phases BN;
	from R2-12-47-2_node_89;
	name R2-12-47-2_fuse_42;
	current_limit 50000;
	to R2-12-47-2_node_181;
	mean_replacement_time 3600.0;
};

object fuse {
	status CLOSED;
	phases CN;
	from R2-12-47-2_node_90;
	name R2-12-47-2_fuse_43;
	current_limit 50000;
	to R2-12-47-2_node_166;
	mean_replacement_time 3600.0;
};

object fuse {
	status CLOSED;
	phases CN;
	from R2-12-47-2_node_91;
	name R2-12-47-2_fuse_44;
	current_limit 50000;
	to R2-12-47-2_node_179;
	mean_replacement_time 3600.0;
};

object fuse {
	status CLOSED;
	phases CN;
	from R2-12-47-2_node_91;
	name R2-12-47-2_fuse_45;
	current_limit 50000;
	to R2-12-47-2_node_185;
	mean_replacement_time 3600.0;
};

object fuse {
	status CLOSED;
	phases BN;
	from R2-12-47-2_node_94;
	name R2-12-47-2_fuse_46;
	current_limit 50000;
	to R2-12-47-2_node_108;
	mean_replacement_time 3600.0;
};

object fuse {
	status CLOSED;
	phases BN;
	from R2-12-47-2_node_244;
	name R2-12-47-2_fuse_47;
	current_limit 50000;
	to R2-12-47-2_node_97;
	mean_replacement_time 3600.0;
};

object fuse {
	status CLOSED;
	phases BN;
	from R2-12-47-2_node_111;
	name R2-12-47-2_fuse_48;
	current_limit 50000;
	to R2-12-47-2_node_121;
	mean_replacement_time 3600.0;
};

object fuse {
	status CLOSED;
	phases BN;
	from R2-12-47-2_node_112;
	name R2-12-47-2_fuse_49;
	current_limit 50000;
	to R2-12-47-2_node_35;
	mean_replacement_time 3600.0;
};

object fuse {
	status CLOSED;
	phases ABCN;
	from R2-12-47-2_node_112;
	name R2-12-47-2_fuse_50;
	current_limit 50000;
	to R2-12-47-2_node_36;
	mean_replacement_time 3600.0;
};

object fuse {
	status CLOSED;
	phases AN;
	from R2-12-47-2_node_146;
	name R2-12-47-2_fuse_51;
	current_limit 50000;
	to R2-12-47-2_node_174;
	mean_replacement_time 3600.0;
};

object line_configuration {
	conductor_A overhead_line_conductor_2;
	conductor_N overhead_line_conductor_2;
	spacing line_spacing_17;
	name line_configuration_24;
};

object line_configuration {
	name line_configuration_25;
	spacing line_spacing_18;
	conductor_N overhead_line_conductor_3;
	conductor_A overhead_line_conductor_3;
	conductor_C overhead_line_conductor_3;
	conductor_B overhead_line_conductor_3;
};

object line_configuration {
	conductor_A overhead_line_conductor_4;
	conductor_N overhead_line_conductor_4;
	spacing line_spacing_17;
	name line_configuration_26;
};

object line_configuration {
	conductor_A overhead_line_conductor_5;
	conductor_N overhead_line_conductor_5;
	spacing line_spacing_17;
	name line_configuration_27;
};

object line_configuration {
	conductor_C overhead_line_conductor_2;
	conductor_N overhead_line_conductor_2;
	spacing line_spacing_19;
	name line_configuration_28;
};

object line_configuration {
	conductor_C overhead_line_conductor_2;
	conductor_N overhead_line_conductor_2;
	spacing line_spacing_19;
	name line_configuration_29;
};

object line_configuration {
	name line_configuration_30;
	spacing line_spacing_18;
	conductor_N overhead_line_conductor_6;
	conductor_A overhead_line_conductor_6;
	conductor_C overhead_line_conductor_6;
	conductor_B overhead_line_conductor_6;
};

object line_configuration {
	conductor_N underground_line_conductor_7;
	spacing line_spacing_20;
	name line_configuration_31;
	conductor_B underground_line_conductor_7;
};

object line_configuration {
	name line_configuration_32;
	spacing line_spacing_18;
	conductor_N overhead_line_conductor_8;
	conductor_A overhead_line_conductor_8;
	conductor_C overhead_line_conductor_8;
	conductor_B overhead_line_conductor_8;
};

object line_configuration {
	name line_configuration_33;
	spacing line_spacing_18;
	conductor_N underground_line_conductor_9;
	conductor_A underground_line_conductor_9;
	conductor_C underground_line_conductor_9;
	conductor_B underground_line_conductor_9;
};

object line_configuration {
	conductor_C underground_line_conductor_7;
	conductor_N underground_line_conductor_7;
	spacing line_spacing_19;
	name line_configuration_34;
};

object line_configuration {
	conductor_N overhead_line_conductor_2;
	spacing line_spacing_20;
	name line_configuration_35;
	conductor_B overhead_line_conductor_2;
};

object line_configuration {
	conductor_C overhead_line_conductor_4;
	conductor_N overhead_line_conductor_4;
	spacing line_spacing_19;
	name line_configuration_36;
};

object line_configuration {
	name line_configuration_37;
	spacing line_spacing_21;
	conductor_N overhead_line_conductor_2;
	conductor_C overhead_line_conductor_2;
	conductor_B overhead_line_conductor_2;
};

object line_configuration {
	name line_configuration_38;
	spacing line_spacing_18;
	conductor_N underground_line_conductor_7;
	conductor_A underground_line_conductor_7;
	conductor_C underground_line_conductor_7;
	conductor_B underground_line_conductor_7;
};

object line_configuration {
	name line_configuration_39;
	spacing line_spacing_18;
	conductor_N overhead_line_conductor_2;
	conductor_A overhead_line_conductor_2;
	conductor_C overhead_line_conductor_2;
	conductor_B overhead_line_conductor_2;
};

object line_configuration {
	name line_configuration_40;
	spacing line_spacing_18;
	conductor_N overhead_line_conductor_10;
	conductor_A overhead_line_conductor_10;
	conductor_C overhead_line_conductor_10;
	conductor_B overhead_line_conductor_10;
};

object line_configuration {
	conductor_A overhead_line_conductor_11;
	conductor_N overhead_line_conductor_11;
	spacing line_spacing_17;
	name line_configuration_41;
};

object line_configuration {
	conductor_A overhead_line_conductor_11;
	conductor_N overhead_line_conductor_11;
	spacing line_spacing_17;
	name line_configuration_42;
};

object line_configuration {
	conductor_N overhead_line_conductor_2;
	spacing line_spacing_20;
	name line_configuration_43;
	conductor_B overhead_line_conductor_2;
};

object line_configuration {
	name line_configuration_44;
	spacing line_spacing_22;
	conductor_N overhead_line_conductor_2;
	conductor_A overhead_line_conductor_2;
	conductor_B overhead_line_conductor_2;
};

object line_configuration {
	name line_configuration_45;
	spacing line_spacing_18;
	conductor_N overhead_line_conductor_12;
	conductor_A overhead_line_conductor_12;
	conductor_C overhead_line_conductor_12;
	conductor_B overhead_line_conductor_12;
};

object line_configuration {
	name line_configuration_46;
	spacing line_spacing_18;
	conductor_N overhead_line_conductor_12;
	conductor_A overhead_line_conductor_12;
	conductor_C overhead_line_conductor_12;
	conductor_B overhead_line_conductor_12;
};

object line_configuration {
	name line_configuration_47;
	spacing line_spacing_23;
	conductor_N overhead_line_conductor_11;
	conductor_A overhead_line_conductor_11;
	conductor_C overhead_line_conductor_11;
};

object line_configuration {
	conductor_C overhead_line_conductor_4;
	conductor_N overhead_line_conductor_4;
	spacing line_spacing_19;
	name line_configuration_48;
};

object line_configuration {
	conductor_C overhead_line_conductor_4;
	conductor_N overhead_line_conductor_4;
	spacing line_spacing_19;
	name line_configuration_49;
};

object line_configuration {
	conductor_N overhead_line_conductor_5;
	spacing line_spacing_20;
	name line_configuration_50;
	conductor_B overhead_line_conductor_5;
};

object line_configuration {
	conductor_N overhead_line_conductor_10;
	spacing line_spacing_20;
	name line_configuration_51;
	conductor_B overhead_line_conductor_10;
};

object line_configuration {
	name line_configuration_52;
	spacing line_spacing_18;
	conductor_N overhead_line_conductor_2;
	conductor_A overhead_line_conductor_2;
	conductor_C overhead_line_conductor_2;
	conductor_B overhead_line_conductor_2;
};

object line_configuration {
	name line_configuration_53;
	spacing line_spacing_18;
	conductor_N overhead_line_conductor_6;
	conductor_A overhead_line_conductor_6;
	conductor_C overhead_line_conductor_6;
	conductor_B overhead_line_conductor_6;
};

object line_configuration {
	conductor_A overhead_line_conductor_11;
	conductor_N overhead_line_conductor_11;
	spacing line_spacing_17;
	name line_configuration_54;
};

object line_configuration {
	conductor_A overhead_line_conductor_11;
	conductor_N overhead_line_conductor_11;
	spacing line_spacing_17;
	name line_configuration_55;
};

object line_configuration {
	conductor_N overhead_line_conductor_11;
	spacing line_spacing_20;
	name line_configuration_56;
	conductor_B overhead_line_conductor_11;
};

object line_configuration {
	name line_configuration_57;
	spacing line_spacing_23;
	conductor_N overhead_line_conductor_2;
	conductor_A overhead_line_conductor_2;
	conductor_C overhead_line_conductor_2;
};

object line_configuration {
	name line_configuration_58;
	spacing line_spacing_18;
	conductor_N overhead_line_conductor_5;
	conductor_A overhead_line_conductor_5;
	conductor_C overhead_line_conductor_5;
	conductor_B overhead_line_conductor_5;
};

object line_configuration {
	conductor_N overhead_line_conductor_2;
	spacing line_spacing_20;
	name line_configuration_59;
	conductor_B overhead_line_conductor_2;
};

object line_configuration {
	conductor_C underground_line_conductor_13;
	conductor_N underground_line_conductor_13;
	spacing line_spacing_19;
	name line_configuration_60;
};

object line_configuration {
	conductor_N overhead_line_conductor_4;
	spacing line_spacing_20;
	name line_configuration_61;
	conductor_B overhead_line_conductor_4;
};

object line_configuration {
	conductor_A overhead_line_conductor_2;
	conductor_N overhead_line_conductor_2;
	spacing line_spacing_17;
	name line_configuration_62;
};

object line_configuration {
	conductor_C overhead_line_conductor_5;
	conductor_N overhead_line_conductor_5;
	spacing line_spacing_19;
	name line_configuration_63;
};

object line_configuration {
	conductor_A overhead_line_conductor_4;
	conductor_N overhead_line_conductor_4;
	spacing line_spacing_17;
	name line_configuration_64;
};

object line_spacing {
	distance_AN 0.0 in;
	name line_spacing_17;
};

object line_spacing {
	distance_BC 0.0 in;
	name line_spacing_18;
	distance_CN 0.0 in;
	distance_AN 0.0 in;
	distance_AB 0.0 in;
	distance_BN 0.0 in;
	distance_AC 0.0 in;
};

object line_spacing {
	distance_CN 0.0 in;
	name line_spacing_19;
};

object line_spacing {
	name line_spacing_20;
	distance_BN 0.0 in;
};

object line_spacing {
	distance_CN 0.0 in;
	distance_BC 0.0 in;
	name line_spacing_21;
	distance_BN 0.0 in;
};

object line_spacing {
	distance_AN 0.0 in;
	name line_spacing_22;
	distance_AB 0.0 in;
	distance_BN 0.0 in;
};

object line_spacing {
	distance_CN 0.0 in;
	distance_AN 0.0 in;
	name line_spacing_23;
	distance_AC 0.0 in;
};

object node {
	phases ABCN;
	name R2-12-47-2_load_1;
	parent R2-12-47-2_meter_1;
	nominal_voltage 480;
};

object node {
	phases ABCN;
	name R2-12-47-2_load_2;
	parent R2-12-47-2_meter_2;
	nominal_voltage 480;
};

object node {
	phases ABCN;
	name R2-12-47-2_load_3;
	parent R2-12-47-2_meter_3;
	nominal_voltage 480;
};

object node {
	phases ABCN;
	name R2-12-47-2_load_4;
	parent R2-12-47-2_meter_4;
	nominal_voltage 480;
};

object node {
	phases ABCN;
	name R2-12-47-2_load_5;
	parent R2-12-47-2_meter_5;
	nominal_voltage 480;
};

object node {
	phases CN;
	name R2-12-47-2_load_6;
	parent R2-12-47-2_meter_6;
	nominal_voltage 480;
};

object node {
	phases ABCN;
	name R2-12-47-2_load_7;
	parent R2-12-47-2_meter_7;
	nominal_voltage 480;
};

object node {
	phases ABCN;
	name R2-12-47-2_load_8;
	parent R2-12-47-2_meter_8;
	nominal_voltage 480;
};

object meter {
	phases ABCN;
	name R2-12-47-2_meter_1;
	voltage_B -3600-6235j;
	voltage_C -3600+6235j;
	voltage_A 7200+0.0j;
	nominal_voltage 480;
};

object meter {
	phases ABCN;
	name R2-12-47-2_meter_2;
	voltage_B -3600-6235j;
	voltage_C -3600+6235j;
	voltage_A 7200+0.0j;
	nominal_voltage 480;
};

object meter {
	phases ABCN;
	name R2-12-47-2_meter_3;
	voltage_B -3600-6235j;
	voltage_C -3600+6235j;
	voltage_A 7200+0.0j;
	nominal_voltage 480;
};

object meter {
	phases ABCN;
	name R2-12-47-2_meter_4;
	voltage_B -3600-6235j;
	voltage_C -3600+6235j;
	voltage_A 7200+0.0j;
	nominal_voltage 480;
};

object meter {
	phases ABCN;
	name R2-12-47-2_meter_5;
	voltage_B -3600-6235j;
	voltage_C -3600+6235j;
	voltage_A 7200+0.0j;
	nominal_voltage 480;
};

object meter {
	voltage_C -3600+6235j;
	phases CN;
	nominal_voltage 480;
	name R2-12-47-2_meter_6;
};

object meter {
	phases ABCN;
	name R2-12-47-2_meter_7;
	voltage_B -3600-6235j;
	voltage_C -3600+6235j;
	voltage_A 7200+0.0j;
	nominal_voltage 480;
};

object meter {
	phases ABCN;
	name R2-12-47-2_meter_8;
	voltage_B -3600-6235j;
	voltage_C -3600+6235j;
	voltage_A 7200+0.0j;
	nominal_voltage 480;
};

object meter {
	phases ABCN;
	name R2-12-47-2_meter_9;
	voltage_B -3600-6235j;
	voltage_C -3600+6235j;
	voltage_A 7200+0.0j;
	nominal_voltage 7200;
};

object node {
	phases ABCN;
	name R2-12-47-2_node_1;
	voltage_B -3600-6235j;
	voltage_C -3600+6235j;
	voltage_A 7200+0.0j;
	nominal_voltage 7200;
};

object node {
	phases ABCN;
	name R2-12-47-2_node_2;
	voltage_B -3600-6235j;
	voltage_C -3600+6235j;
	voltage_A 7200+0.0j;
	nominal_voltage 7200;
};

object node {
	phases AN;
	nominal_voltage 7200;
	name R2-12-47-2_node_3;
	voltage_A 7200+0.0j;
};

object node {
	phases AN;
	nominal_voltage 7200;
	name R2-12-47-2_node_4;
	voltage_A 7200+0.0j;
};

object node {
	voltage_C -3600+6235j;
	phases CN;
	nominal_voltage 7200;
	name R2-12-47-2_node_5;
};

object node {
	phases ABCN;
	name R2-12-47-2_node_6;
	voltage_B -3600-6235j;
	voltage_C -3600+6235j;
	voltage_A 7200+0.0j;
	nominal_voltage 7200;
};

object node {
	phases ABCN;
	name R2-12-47-2_node_7;
	voltage_B -3600-6235j;
	voltage_C -3600+6235j;
	voltage_A 7200+0.0j;
	nominal_voltage 7200;
};

object node {
	voltage_B -3600-6235j;
	phases BN;
	nominal_voltage 7200;
	name R2-12-47-2_node_8;
};

object node {
	phases ABCN;
	name R2-12-47-2_node_9;
	voltage_B -3600-6235j;
	voltage_C -3600+6235j;
	voltage_A 7200+0.0j;
	nominal_voltage 7200;
};

object node {
	phases ABCN;
	name R2-12-47-2_node_10;
	voltage_B -3600-6235j;
	voltage_C -3600+6235j;
	voltage_A 7200+0.0j;
	nominal_voltage 7200;
};

object node {
	phases ABCN;
	name R2-12-47-2_node_11;
	voltage_B -3600-6235j;
	voltage_C -3600+6235j;
	voltage_A 7200+0.0j;
	nominal_voltage 7200;
};

object node {
	voltage_C -3600+6235j;
	phases CN;
	nominal_voltage 7200;
	name R2-12-47-2_node_12;
};

object node {
	voltage_B -3600-6235j;
	phases BN;
	nominal_voltage 7200;
	name R2-12-47-2_node_13;
};

object node {
	phases BCN;
	name R2-12-47-2_node_14;
	voltage_B -3600-6235j;
	voltage_C -3600+6235j;
	nominal_voltage 7200;
};

object node {
	phases ABCN;
	name R2-12-47-2_node_15;
	voltage_B -3600-6235j;
	voltage_C -3600+6235j;
	voltage_A 7200+0.0j;
	nominal_voltage 7200;
};

object node {
	phases ABCN;
	name R2-12-47-2_node_16;
	voltage_B -3600-6235j;
	voltage_C -3600+6235j;
	voltage_A 7200+0.0j;
	nominal_voltage 7200;
};

object node {
	phases ABCN;
	name R2-12-47-2_node_17;
	voltage_B -3600-6235j;
	voltage_C -3600+6235j;
	voltage_A 7200+0.0j;
	nominal_voltage 7200;
};

object node {
	phases ABCN;
	name R2-12-47-2_node_18;
	voltage_B -3600-6235j;
	voltage_C -3600+6235j;
	voltage_A 7200+0.0j;
	nominal_voltage 7200;
};

object node {
	phases ABCN;
	name R2-12-47-2_node_19;
	voltage_B -3600-6235j;
	voltage_C -3600+6235j;
	voltage_A 7200+0.0j;
	nominal_voltage 7200;
};

object node {
	phases AN;
	nominal_voltage 7200;
	name R2-12-47-2_node_20;
	voltage_A 7200+0.0j;
};

object node {
	phases AN;
	nominal_voltage 7200;
	name R2-12-47-2_node_21;
	voltage_A 7200+0.0j;
};

object node {
	voltage_B -3600-6235j;
	phases BN;
	nominal_voltage 7200;
	name R2-12-47-2_node_22;
};

object node {
	phases ABCN;
	name R2-12-47-2_node_23;
	voltage_B -3600-6235j;
	voltage_C -3600+6235j;
	voltage_A 7200+0.0j;
	nominal_voltage 7200;
};

object node {
	phases ABCN;
	name R2-12-47-2_node_24;
	voltage_B -3600-6235j;
	voltage_C -3600+6235j;
	voltage_A 7200+0.0j;
	nominal_voltage 7200;
};

object node {
	phases ABCN;
	name R2-12-47-2_node_25;
	voltage_B -3600-6235j;
	voltage_C -3600+6235j;
	voltage_A 7200+0.0j;
	nominal_voltage 7200;
};

object node {
	phases ABCN;
	name R2-12-47-2_node_26;
	voltage_B -3600-6235j;
	voltage_C -3600+6235j;
	voltage_A 7200+0.0j;
	nominal_voltage 7200;
};

object node {
	phases ABCN;
	name R2-12-47-2_node_27;
	voltage_B -3600-6235j;
	voltage_C -3600+6235j;
	voltage_A 7200+0.0j;
	nominal_voltage 7200;
};

object node {
	phases ABCN;
	name R2-12-47-2_node_28;
	voltage_B -3600-6235j;
	voltage_C -3600+6235j;
	voltage_A 7200+0.0j;
	nominal_voltage 7200;
};

object node {
	voltage_C -3600+6235j;
	phases CN;
	nominal_voltage 7200;
	name R2-12-47-2_node_29;
};

object node {
	phases ABN;
	name R2-12-47-2_node_30;
	voltage_B -3600-6235j;
	voltage_A 7200+0.0j;
	nominal_voltage 7200;
};

object node {
	voltage_B -3600-6235j;
	phases BN;
	nominal_voltage 7200;
	name R2-12-47-2_node_31;
};

object node {
	phases AN;
	nominal_voltage 7200;
	name R2-12-47-2_node_32;
	voltage_A 7200+0.0j;
};

object node {
	phases ABN;
	name R2-12-47-2_node_33;
	voltage_B -3600-6235j;
	voltage_A 7200+0.0j;
	nominal_voltage 7200;
};

object node {
	phases ABCN;
	name R2-12-47-2_node_34;
	voltage_B -3600-6235j;
	voltage_C -3600+6235j;
	voltage_A 7200+0.0j;
	nominal_voltage 7200;
};

object node {
	voltage_B -3600-6235j;
	phases BN;
	nominal_voltage 7200;
	name R2-12-47-2_node_35;
};

object node {
	phases ABCN;
	name R2-12-47-2_node_36;
	voltage_B -3600-6235j;
	voltage_C -3600+6235j;
	voltage_A 7200+0.0j;
	nominal_voltage 7200;
};

object node {
	phases ABCN;
	name R2-12-47-2_node_37;
	voltage_B -3600-6235j;
	voltage_C -3600+6235j;
	voltage_A 7200+0.0j;
	nominal_voltage 7200;
};

object node {
	phases ABCN;
	name R2-12-47-2_node_38;
	voltage_B -3600-6235j;
	voltage_C -3600+6235j;
	voltage_A 7200+0.0j;
	nominal_voltage 7200;
};

object node {
	phases ABCN;
	name R2-12-47-2_node_39;
	voltage_B -3600-6235j;
	voltage_C -3600+6235j;
	voltage_A 7200+0.0j;
	nominal_voltage 7200;
};

object node {
	phases ABCN;
	name R2-12-47-2_node_40;
	voltage_B -3600-6235j;
	voltage_C -3600+6235j;
	voltage_A 7200+0.0j;
	nominal_voltage 7200;
};

object node {
	phases ABCN;
	name R2-12-47-2_node_41;
	voltage_B -3600-6235j;
	voltage_C -3600+6235j;
	voltage_A 7200+0.0j;
	nominal_voltage 7200;
};

object node {
	phases ABCN;
	name R2-12-47-2_node_42;
	voltage_B -3600-6235j;
	voltage_C -3600+6235j;
	voltage_A 7200+0.0j;
	nominal_voltage 7200;
};

object node {
	phases ABCN;
	name R2-12-47-2_node_43;
	voltage_B -3600-6235j;
	voltage_C -3600+6235j;
	voltage_A 7200+0.0j;
	nominal_voltage 7200;
};

object node {
	phases ABCN;
	name R2-12-47-2_node_44;
	voltage_B -3600-6235j;
	voltage_C -3600+6235j;
	voltage_A 7200+0.0j;
	nominal_voltage 7200;
};

object node {
	phases ABCN;
	name R2-12-47-2_node_45;
	voltage_B -3600-6235j;
	voltage_C -3600+6235j;
	voltage_A 7200+0.0j;
	nominal_voltage 7200;
};

object node {
	phases ABCN;
	name R2-12-47-2_node_46;
	voltage_B -3600-6235j;
	voltage_C -3600+6235j;
	voltage_A 7200+0.0j;
	nominal_voltage 7200;
};

object node {
	phases ABCN;
	name R2-12-47-2_node_47;
	voltage_B -3600-6235j;
	voltage_C -3600+6235j;
	voltage_A 7200+0.0j;
	nominal_voltage 7200;
};

object node {
	voltage_B -3600-6235j;
	phases BN;
	nominal_voltage 7200;
	name R2-12-47-2_node_48;
};

object node {
	voltage_C -3600+6235j;
	phases CN;
	nominal_voltage 7200;
	name R2-12-47-2_node_49;
};

object node {
	voltage_C -3600+6235j;
	phases CN;
	nominal_voltage 7200;
	name R2-12-47-2_node_50;
};

object node {
	phases AN;
	nominal_voltage 7200;
	name R2-12-47-2_node_51;
	voltage_A 7200+0.0j;
};

object node {
	phases ABCN;
	name R2-12-47-2_node_52;
	voltage_B -3600-6235j;
	voltage_C -3600+6235j;
	voltage_A 7200+0.0j;
	nominal_voltage 7200;
};

object node {
	voltage_C -3600+6235j;
	phases CN;
	nominal_voltage 7200;
	name R2-12-47-2_node_53;
};

object node {
	voltage_B -3600-6235j;
	phases BN;
	nominal_voltage 7200;
	name R2-12-47-2_node_54;
};

object node {
	voltage_B -3600-6235j;
	phases BN;
	nominal_voltage 7200;
	name R2-12-47-2_node_55;
};

object node {
	phases ABCN;
	name R2-12-47-2_node_56;
	voltage_B -3600-6235j;
	voltage_C -3600+6235j;
	voltage_A 7200+0.0j;
	nominal_voltage 7200;
};

object node {
	phases ABCN;
	name R2-12-47-2_node_57;
	voltage_B -3600-6235j;
	voltage_C -3600+6235j;
	voltage_A 7200+0.0j;
	nominal_voltage 7200;
};

object node {
	phases AN;
	nominal_voltage 7200;
	name R2-12-47-2_node_58;
	voltage_A 7200+0.0j;
};

object node {
	phases ABCN;
	name R2-12-47-2_node_59;
	voltage_B -3600-6235j;
	voltage_C -3600+6235j;
	voltage_A 7200+0.0j;
	nominal_voltage 7200;
};

object node {
	phases AN;
	nominal_voltage 7200;
	name R2-12-47-2_node_60;
	voltage_A 7200+0.0j;
};

object node {
	phases AN;
	nominal_voltage 7200;
	name R2-12-47-2_node_61;
	voltage_A 7200+0.0j;
};

object node {
	phases ABCN;
	name R2-12-47-2_node_62;
	voltage_B -3600-6235j;
	voltage_C -3600+6235j;
	voltage_A 7200+0.0j;
	nominal_voltage 7200;
};

object node {
	phases ABCN;
	name R2-12-47-2_node_63;
	voltage_B -3600-6235j;
	voltage_C -3600+6235j;
	voltage_A 7200+0.0j;
	nominal_voltage 7200;
};

object node {
	phases ABCN;
	name R2-12-47-2_node_64;
	voltage_B -3600-6235j;
	voltage_C -3600+6235j;
	voltage_A 7200+0.0j;
	nominal_voltage 7200;
};

object node {
	phases ABCN;
	name R2-12-47-2_node_65;
	voltage_B -3600-6235j;
	voltage_C -3600+6235j;
	voltage_A 7200+0.0j;
	nominal_voltage 7200;
};

object node {
	voltage_C -3600+6235j;
	phases CN;
	nominal_voltage 7200;
	name R2-12-47-2_node_66;
};

object node {
	phases ACN;
	name R2-12-47-2_node_67;
	voltage_C -3600+6235j;
	voltage_A 7200+0.0j;
	nominal_voltage 7200;
};

object node {
	phases ABCN;
	name R2-12-47-2_node_68;
	voltage_B -3600-6235j;
	voltage_C -3600+6235j;
	voltage_A 7200+0.0j;
	nominal_voltage 7200;
};

object node {
	phases ABCN;
	name R2-12-47-2_node_69;
	voltage_B -3600-6235j;
	voltage_C -3600+6235j;
	voltage_A 7200+0.0j;
	nominal_voltage 7200;
};

object node {
	phases ABCN;
	name R2-12-47-2_node_70;
	voltage_B -3600-6235j;
	voltage_C -3600+6235j;
	voltage_A 7200+0.0j;
	nominal_voltage 7200;
};

object node {
	phases ABCN;
	name R2-12-47-2_node_71;
	voltage_B -3600-6235j;
	voltage_C -3600+6235j;
	voltage_A 7200+0.0j;
	nominal_voltage 7200;
};

object node {
	phases ABCN;
	name R2-12-47-2_node_72;
	voltage_B -3600-6235j;
	voltage_C -3600+6235j;
	voltage_A 7200+0.0j;
	nominal_voltage 7200;
};

object node {
	phases ABCN;
	name R2-12-47-2_node_73;
	voltage_B -3600-6235j;
	voltage_C -3600+6235j;
	voltage_A 7200+0.0j;
	nominal_voltage 7200;
};

object node {
	phases ABCN;
	name R2-12-47-2_node_74;
	voltage_B -3600-6235j;
	voltage_C -3600+6235j;
	voltage_A 7200+0.0j;
	nominal_voltage 7200;
};

object node {
	voltage_C -3600+6235j;
	phases CN;
	nominal_voltage 7200;
	name R2-12-47-2_node_75;
};

object node {
	voltage_C -3600+6235j;
	phases CN;
	nominal_voltage 7200;
	name R2-12-47-2_node_76;
};

object node {
	voltage_C -3600+6235j;
	phases CN;
	nominal_voltage 7200;
	name R2-12-47-2_node_77;
};

object node {
	voltage_C -3600+6235j;
	phases CN;
	nominal_voltage 7200;
	name R2-12-47-2_node_78;
};

object node {
	voltage_B -3600-6235j;
	phases BN;
	nominal_voltage 7200;
	name R2-12-47-2_node_79;
};

object node {
	voltage_B -3600-6235j;
	phases BN;
	nominal_voltage 7200;
	name R2-12-47-2_node_80;
};

object node {
	voltage_B -3600-6235j;
	phases BN;
	nominal_voltage 7200;
	name R2-12-47-2_node_81;
};

object node {
	voltage_B -3600-6235j;
	phases BN;
	nominal_voltage 7200;
	name R2-12-47-2_node_82;
};

object node {
	voltage_C -3600+6235j;
	phases CN;
	nominal_voltage 7200;
	name R2-12-47-2_node_83;
};

object node {
	voltage_B -3600-6235j;
	phases BN;
	nominal_voltage 7200;
	name R2-12-47-2_node_84;
};

object node {
	voltage_B -3600-6235j;
	phases BN;
	nominal_voltage 7200;
	name R2-12-47-2_node_85;
};

object node {
	voltage_B -3600-6235j;
	phases BN;
	nominal_voltage 7200;
	name R2-12-47-2_node_86;
};

object node {
	phases ABCN;
	name R2-12-47-2_node_87;
	voltage_B -3600-6235j;
	voltage_C -3600+6235j;
	voltage_A 7200+0.0j;
	nominal_voltage 7200;
};

object node {
	phases ABCN;
	name R2-12-47-2_node_88;
	voltage_B -3600-6235j;
	voltage_C -3600+6235j;
	voltage_A 7200+0.0j;
	nominal_voltage 7200;
};

object node {
	phases ABCN;
	name R2-12-47-2_node_89;
	voltage_B -3600-6235j;
	voltage_C -3600+6235j;
	voltage_A 7200+0.0j;
	nominal_voltage 7200;
};

object node {
	phases ABCN;
	name R2-12-47-2_node_90;
	voltage_B -3600-6235j;
	voltage_C -3600+6235j;
	voltage_A 7200+0.0j;
	nominal_voltage 7200;
};

object node {
	voltage_C -3600+6235j;
	phases CN;
	nominal_voltage 7200;
	name R2-12-47-2_node_91;
};

object node {
	voltage_C -3600+6235j;
	phases CN;
	nominal_voltage 7200;
	name R2-12-47-2_node_92;
};

object node {
	voltage_C -3600+6235j;
	phases CN;
	nominal_voltage 7200;
	name R2-12-47-2_node_93;
};

object node {
	voltage_B -3600-6235j;
	phases BN;
	nominal_voltage 7200;
	name R2-12-47-2_node_94;
};

object node {
	voltage_C -3600+6235j;
	phases CN;
	nominal_voltage 7200;
	name R2-12-47-2_node_95;
};

object node {
	voltage_C -3600+6235j;
	phases CN;
	nominal_voltage 7200;
	name R2-12-47-2_node_96;
};

object node {
	voltage_B -3600-6235j;
	phases BN;
	nominal_voltage 7200;
	name R2-12-47-2_node_97;
};

object node {
	voltage_C -3600+6235j;
	phases CN;
	nominal_voltage 7200;
	name R2-12-47-2_node_98;
};

object node {
	voltage_C -3600+6235j;
	phases CN;
	nominal_voltage 7200;
	name R2-12-47-2_node_99;
};

object node {
	voltage_B -3600-6235j;
	phases BN;
	nominal_voltage 7200;
	name R2-12-47-2_node_100;
};

object node {
	voltage_B -3600-6235j;
	phases BN;
	nominal_voltage 7200;
	name R2-12-47-2_node_101;
};

object node {
	phases ABCN;
	name R2-12-47-2_node_102;
	voltage_B -3600-6235j;
	voltage_C -3600+6235j;
	voltage_A 7200+0.0j;
	nominal_voltage 7200;
};

object node {
	phases ABCN;
	name R2-12-47-2_node_103;
	voltage_B -3600-6235j;
	voltage_C -3600+6235j;
	voltage_A 7200+0.0j;
	nominal_voltage 7200;
};

object node {
	voltage_C -3600+6235j;
	phases CN;
	nominal_voltage 7200;
	name R2-12-47-2_node_104;
};

object node {
	voltage_C -3600+6235j;
	phases CN;
	nominal_voltage 7200;
	name R2-12-47-2_node_105;
};

object node {
	voltage_B -3600-6235j;
	phases BN;
	nominal_voltage 7200;
	name R2-12-47-2_node_106;
};

object node {
	voltage_B -3600-6235j;
	phases BN;
	nominal_voltage 7200;
	name R2-12-47-2_node_107;
};

object node {
	voltage_B -3600-6235j;
	phases BN;
	nominal_voltage 7200;
	name R2-12-47-2_node_108;
};

object node {
	phases AN;
	nominal_voltage 7200;
	name R2-12-47-2_node_109;
	voltage_A 7200+0.0j;
};

object node {
	phases ABCN;
	name R2-12-47-2_node_110;
	voltage_B -3600-6235j;
	voltage_C -3600+6235j;
	voltage_A 7200+0.0j;
	nominal_voltage 7200;
};

object node {
	phases ABCN;
	name R2-12-47-2_node_111;
	voltage_B -3600-6235j;
	voltage_C -3600+6235j;
	voltage_A 7200+0.0j;
	nominal_voltage 7200;
};

object node {
	phases ABCN;
	name R2-12-47-2_node_112;
	voltage_B -3600-6235j;
	voltage_C -3600+6235j;
	voltage_A 7200+0.0j;
	nominal_voltage 7200;
};

object node {
	phases AN;
	nominal_voltage 7200;
	name R2-12-47-2_node_113;
	voltage_A 7200+0.0j;
};

object node {
	phases AN;
	nominal_voltage 7200;
	name R2-12-47-2_node_114;
	voltage_A 7200+0.0j;
};

object node {
	phases AN;
	nominal_voltage 7200;
	name R2-12-47-2_node_115;
	voltage_A 7200+0.0j;
};

object node {
	phases AN;
	nominal_voltage 7200;
	name R2-12-47-2_node_116;
	voltage_A 7200+0.0j;
};

object node {
	voltage_C -3600+6235j;
	phases CN;
	nominal_voltage 7200;
	name R2-12-47-2_node_117;
};

object node {
	voltage_B -3600-6235j;
	phases BN;
	nominal_voltage 7200;
	name R2-12-47-2_node_118;
};

object node {
	voltage_B -3600-6235j;
	phases BN;
	nominal_voltage 7200;
	name R2-12-47-2_node_119;
};

object node {
	voltage_B -3600-6235j;
	phases BN;
	nominal_voltage 7200;
	name R2-12-47-2_node_120;
};

object node {
	voltage_B -3600-6235j;
	phases BN;
	nominal_voltage 7200;
	name R2-12-47-2_node_121;
};

object node {
	voltage_C -3600+6235j;
	phases CN;
	nominal_voltage 7200;
	name R2-12-47-2_node_122;
};

object node {
	voltage_C -3600+6235j;
	phases CN;
	nominal_voltage 7200;
	name R2-12-47-2_node_123;
};

object node {
	voltage_C -3600+6235j;
	phases CN;
	nominal_voltage 7200;
	name R2-12-47-2_node_124;
};

object node {
	voltage_B -3600-6235j;
	phases BN;
	nominal_voltage 7200;
	name R2-12-47-2_node_125;
};

object node {
	voltage_B -3600-6235j;
	phases BN;
	nominal_voltage 7200;
	name R2-12-47-2_node_126;
};

object node {
	voltage_B -3600-6235j;
	phases BN;
	nominal_voltage 7200;
	name R2-12-47-2_node_127;
};

object node {
	voltage_C -3600+6235j;
	phases CN;
	nominal_voltage 7200;
	name R2-12-47-2_node_128;
};

object node {
	voltage_B -3600-6235j;
	phases BN;
	nominal_voltage 7200;
	name R2-12-47-2_node_129;
};

object node {
	voltage_B -3600-6235j;
	phases BN;
	nominal_voltage 7200;
	name R2-12-47-2_node_130;
};

object node {
	phases AN;
	nominal_voltage 7200;
	name R2-12-47-2_node_131;
	voltage_A 7200+0.0j;
};

object node {
	phases AN;
	nominal_voltage 7200;
	name R2-12-47-2_node_132;
	voltage_A 7200+0.0j;
};

object node {
	voltage_B -3600-6235j;
	phases BN;
	nominal_voltage 7200;
	name R2-12-47-2_node_133;
};

object node {
	voltage_C -3600+6235j;
	phases CN;
	nominal_voltage 7200;
	name R2-12-47-2_node_134;
};

object node {
	phases AN;
	nominal_voltage 7200;
	name R2-12-47-2_node_135;
	voltage_A 7200+0.0j;
};

object node {
	phases AN;
	nominal_voltage 7200;
	name R2-12-47-2_node_136;
	voltage_A 7200+0.0j;
};

object node {
	voltage_B -3600-6235j;
	phases BN;
	nominal_voltage 7200;
	name R2-12-47-2_node_137;
};

object node {
	voltage_C -3600+6235j;
	phases CN;
	nominal_voltage 7200;
	name R2-12-47-2_node_138;
};

object node {
	phases AN;
	nominal_voltage 7200;
	name R2-12-47-2_node_139;
	voltage_A 7200+0.0j;
};

object node {
	voltage_B -3600-6235j;
	phases BN;
	nominal_voltage 7200;
	name R2-12-47-2_node_140;
};

object node {
	voltage_C -3600+6235j;
	phases CN;
	nominal_voltage 7200;
	name R2-12-47-2_node_141;
};

object node {
	phases ABCN;
	name R2-12-47-2_node_142;
	voltage_B -3600-6235j;
	voltage_C -3600+6235j;
	voltage_A 7200+0.0j;
	nominal_voltage 7200;
};

object node {
	voltage_B -3600-6235j;
	phases BN;
	nominal_voltage 7200;
	name R2-12-47-2_node_143;
};

object node {
	voltage_C -3600+6235j;
	phases CN;
	nominal_voltage 7200;
	name R2-12-47-2_node_144;
};

object node {
	voltage_B -3600-6235j;
	phases BN;
	nominal_voltage 7200;
	name R2-12-47-2_node_145;
};

object node {
	phases ABCN;
	name R2-12-47-2_node_146;
	voltage_B -3600-6235j;
	voltage_C -3600+6235j;
	voltage_A 7200+0.0j;
	nominal_voltage 7200;
};

object node {
	phases ABCN;
	name R2-12-47-2_node_146_2;
	voltage_B -3600-6235j;
	voltage_C -3600+6235j;
	voltage_A 7200+0.0j;
	nominal_voltage 7200;
};

object node {
	voltage_C -3600+6235j;
	phases CN;
	nominal_voltage 7200;
	name R2-12-47-2_node_147;
};

object node {
	voltage_C -3600+6235j;
	phases CN;
	nominal_voltage 7200;
	name R2-12-47-2_node_148;
};

object node {
	voltage_B -3600-6235j;
	phases BN;
	nominal_voltage 7200;
	name R2-12-47-2_node_149;
};

object node {
	voltage_C -3600+6235j;
	phases CN;
	nominal_voltage 7200;
	name R2-12-47-2_node_150;
};

object node {
	voltage_B -3600-6235j;
	phases BN;
	nominal_voltage 7200;
	name R2-12-47-2_node_151;
};

object node {
	phases ABCN;
	name R2-12-47-2_node_152;
	voltage_B -3600-6235j;
	voltage_C -3600+6235j;
	voltage_A 7200+0.0j;
	nominal_voltage 7200;
};

object node {
	voltage_C -3600+6235j;
	phases CN;
	nominal_voltage 7200;
	name R2-12-47-2_node_153;
};

object node {
	phases AN;
	nominal_voltage 7200;
	name R2-12-47-2_node_154;
	voltage_A 7200+0.0j;
};

object node {
	voltage_B -3600-6235j;
	phases BN;
	nominal_voltage 7200;
	name R2-12-47-2_node_155;
};

object node {
	voltage_C -3600+6235j;
	phases CN;
	nominal_voltage 7200;
	name R2-12-47-2_node_156;
};

object node {
	voltage_B -3600-6235j;
	phases BN;
	nominal_voltage 7200;
	name R2-12-47-2_node_157;
};

object node {
	voltage_B -3600-6235j;
	phases BN;
	nominal_voltage 7200;
	name R2-12-47-2_node_158;
};

object node {
	voltage_C -3600+6235j;
	phases CN;
	nominal_voltage 7200;
	name R2-12-47-2_node_159;
};

object node {
	voltage_C -3600+6235j;
	phases CN;
	nominal_voltage 7200;
	name R2-12-47-2_node_160;
};

object node {
	voltage_C -3600+6235j;
	phases CN;
	nominal_voltage 7200;
	name R2-12-47-2_node_161;
};

object node {
	voltage_B -3600-6235j;
	phases BN;
	nominal_voltage 7200;
	name R2-12-47-2_node_162;
};

object node {
	phases AN;
	nominal_voltage 7200;
	name R2-12-47-2_node_163;
	voltage_A 7200+0.0j;
};

object node {
	voltage_B -3600-6235j;
	phases BN;
	nominal_voltage 7200;
	name R2-12-47-2_node_164;
};

object node {
	voltage_B -3600-6235j;
	phases BN;
	nominal_voltage 7200;
	name R2-12-47-2_node_165;
};

object node {
	voltage_C -3600+6235j;
	phases CN;
	nominal_voltage 7200;
	name R2-12-47-2_node_166;
};

object node {
	voltage_C -3600+6235j;
	phases CN;
	nominal_voltage 7200;
	name R2-12-47-2_node_167;
};

object node {
	phases ABCN;
	name R2-12-47-2_node_168;
	voltage_B -3600-6235j;
	voltage_C -3600+6235j;
	voltage_A 7200+0.0j;
	nominal_voltage 7200;
};

object node {
	voltage_C -3600+6235j;
	phases CN;
	nominal_voltage 7200;
	name R2-12-47-2_node_169;
};

object node {
	voltage_C -3600+6235j;
	phases CN;
	nominal_voltage 7200;
	name R2-12-47-2_node_170;
};

object node {
	voltage_B -3600-6235j;
	phases BN;
	nominal_voltage 7200;
	name R2-12-47-2_node_171;
};

object node {
	phases AN;
	nominal_voltage 7200;
	name R2-12-47-2_node_172;
	voltage_A 7200+0.0j;
};

object node {
	voltage_B -3600-6235j;
	phases BN;
	nominal_voltage 7200;
	name R2-12-47-2_node_173;
};

object node {
	phases AN;
	nominal_voltage 7200;
	name R2-12-47-2_node_174;
	voltage_A 7200+0.0j;
};

object node {
	phases AN;
	nominal_voltage 7200;
	name R2-12-47-2_node_175;
	voltage_A 7200+0.0j;
};

object node {
	phases ABCN;
	name R2-12-47-2_node_176;
	voltage_B -3600-6235j;
	voltage_C -3600+6235j;
	voltage_A 7200+0.0j;
	nominal_voltage 7200;
};

object node {
	voltage_C -3600+6235j;
	phases CN;
	nominal_voltage 7200;
	name R2-12-47-2_node_177;
};

object node {
	voltage_C -3600+6235j;
	phases CN;
	nominal_voltage 7200;
	name R2-12-47-2_node_178;
};

object node {
	voltage_C -3600+6235j;
	phases CN;
	nominal_voltage 7200;
	name R2-12-47-2_node_179;
};

object node {
	voltage_B -3600-6235j;
	phases BN;
	nominal_voltage 7200;
	name R2-12-47-2_node_180;
};

object node {
	voltage_B -3600-6235j;
	phases BN;
	nominal_voltage 7200;
	name R2-12-47-2_node_181;
};

object node {
	voltage_C -3600+6235j;
	phases CN;
	nominal_voltage 7200;
	name R2-12-47-2_node_182;
};

object node {
	phases ABCN;
	name R2-12-47-2_node_183;
	voltage_B -3600-6235j;
	voltage_C -3600+6235j;
	voltage_A 7200+0.0j;
	nominal_voltage 7200;
};

object node {
	phases ABCN;
	name R2-12-47-2_node_184;
	voltage_B -3600-6235j;
	voltage_C -3600+6235j;
	voltage_A 7200+0.0j;
	nominal_voltage 7200;
};

object node {
	voltage_C -3600+6235j;
	phases CN;
	nominal_voltage 7200;
	name R2-12-47-2_node_185;
};

object node {
	phases AN;
	nominal_voltage 7200;
	name R2-12-47-2_node_186;
	voltage_A 7200+0.0j;
};

object node {
	phases ABCN;
	name R2-12-47-2_node_187;
	voltage_B -3600-6235j;
	voltage_C -3600+6235j;
	voltage_A 7200+0.0j;
	nominal_voltage 7200;
};

object node {
	phases AN;
	nominal_voltage 7200;
	name R2-12-47-2_node_188;
	voltage_A 7200+0.0j;
};

object node {
	voltage_C -3600+6235j;
	phases CN;
	nominal_voltage 7200;
	name R2-12-47-2_node_189;
};

object node {
	voltage_C -3600+6235j;
	phases CN;
	nominal_voltage 7200;
	name R2-12-47-2_node_190;
};

object node {
	phases AN;
	nominal_voltage 7200;
	name R2-12-47-2_node_191;
	voltage_A 7200+0.0j;
};

object node {
	voltage_C -3600+6235j;
	phases CN;
	nominal_voltage 7200;
	name R2-12-47-2_node_192;
};

object node {
	voltage_C -3600+6235j;
	phases CN;
	nominal_voltage 7200;
	name R2-12-47-2_node_193;
};

object node {
	phases AN;
	nominal_voltage 7200;
	name R2-12-47-2_node_194;
	voltage_A 7200+0.0j;
};

object node {
	phases AN;
	nominal_voltage 7200;
	name R2-12-47-2_node_195;
	voltage_A 7200+0.0j;
};

object node {
	phases ABCN;
	name R2-12-47-2_node_196;
	voltage_B -3600-6235j;
	voltage_C -3600+6235j;
	voltage_A 7200+0.0j;
	nominal_voltage 7200;
};

object node {
	voltage_C -3600+6235j;
	phases CN;
	nominal_voltage 7200;
	name R2-12-47-2_node_197;
};

object node {
	phases AN;
	nominal_voltage 7200;
	name R2-12-47-2_node_198;
	voltage_A 7200+0.0j;
};

object node {
	voltage_C -3600+6235j;
	phases CN;
	nominal_voltage 7200;
	name R2-12-47-2_node_199;
};

object node {
	voltage_C -3600+6235j;
	phases CN;
	nominal_voltage 7200;
	name R2-12-47-2_node_200;
};

object node {
	phases AN;
	nominal_voltage 7200;
	name R2-12-47-2_node_201;
	voltage_A 7200+0.0j;
};

object node {
	phases AN;
	nominal_voltage 7200;
	name R2-12-47-2_node_202;
	voltage_A 7200+0.0j;
};

object node {
	voltage_C -3600+6235j;
	phases CN;
	nominal_voltage 7200;
	name R2-12-47-2_node_203;
};

object node {
	voltage_C -3600+6235j;
	phases CN;
	nominal_voltage 7200;
	name R2-12-47-2_node_204;
};

object node {
	phases AN;
	nominal_voltage 7200;
	name R2-12-47-2_node_205;
	voltage_A 7200+0.0j;
};

object node {
	phases AN;
	nominal_voltage 7200;
	name R2-12-47-2_node_206;
	voltage_A 7200+0.0j;
};

object node {
	voltage_B -3600-6235j;
	phases BN;
	nominal_voltage 7200;
	name R2-12-47-2_node_207;
};

object node {
	phases AN;
	nominal_voltage 7200;
	name R2-12-47-2_node_208;
	voltage_A 7200+0.0j;
};

object node {
	phases AN;
	nominal_voltage 7200;
	name R2-12-47-2_node_209;
	voltage_A 7200+0.0j;
};

object node {
	phases AN;
	nominal_voltage 7200;
	name R2-12-47-2_node_210;
	voltage_A 7200+0.0j;
};

object node {
	voltage_B -3600-6235j;
	phases BN;
	nominal_voltage 7200;
	name R2-12-47-2_node_211;
};

object node {
	voltage_C -3600+6235j;
	phases CN;
	nominal_voltage 7200;
	name R2-12-47-2_node_212;
};

object node {
	voltage_C -3600+6235j;
	phases CN;
	nominal_voltage 7200;
	name R2-12-47-2_node_213;
};

object node {
	voltage_B -3600-6235j;
	phases BN;
	nominal_voltage 7200;
	name R2-12-47-2_node_214;
};

object node {
	voltage_C -3600+6235j;
	phases CN;
	nominal_voltage 7200;
	name R2-12-47-2_node_215;
};

object node {
	voltage_B -3600-6235j;
	phases BN;
	nominal_voltage 7200;
	name R2-12-47-2_node_216;
};

object node {
	phases ABCN;
	name R2-12-47-2_node_217;
	voltage_B -3600-6235j;
	voltage_C -3600+6235j;
	voltage_A 7200+0.0j;
	nominal_voltage 7200;
};

object node {
	phases ABCN;
	name R2-12-47-2_node_218;
	voltage_B -3600-6235j;
	voltage_C -3600+6235j;
	voltage_A 7200+0.0j;
	nominal_voltage 7200;
};

object node {
	phases ABCN;
	name R2-12-47-2_node_219;
	voltage_B -3600-6235j;
	voltage_C -3600+6235j;
	voltage_A 7200+0.0j;
	nominal_voltage 7200;
};

object node {
	phases AN;
	nominal_voltage 7200;
	name R2-12-47-2_node_220;
	voltage_A 7200+0.0j;
};

object node {
	phases ABCN;
	name R2-12-47-2_node_221;
	voltage_B -3600-6235j;
	voltage_C -3600+6235j;
	voltage_A 7200+0.0j;
	nominal_voltage 7200;
};

object node {
	phases ABCN;
	name R2-12-47-2_node_222;
	voltage_B -3600-6235j;
	voltage_C -3600+6235j;
	voltage_A 7200+0.0j;
	nominal_voltage 7200;
};

object node {
	phases ABCN;
	name R2-12-47-2_node_223;
	voltage_B -3600-6235j;
	voltage_C -3600+6235j;
	voltage_A 7200+0.0j;
	nominal_voltage 7200;
};

object node {
	phases AN;
	nominal_voltage 7200;
	name R2-12-47-2_node_224;
	voltage_A 7200+0.0j;
};

object node {
	voltage_C -3600+6235j;
	phases CN;
	nominal_voltage 7200;
	name R2-12-47-2_node_225;
};

object node {
	voltage_B -3600-6235j;
	phases BN;
	nominal_voltage 7200;
	name R2-12-47-2_node_226;
};

object node {
	phases AN;
	nominal_voltage 7200;
	name R2-12-47-2_node_227;
	voltage_A 7200+0.0j;
};

object node {
	voltage_B -3600-6235j;
	phases BN;
	nominal_voltage 7200;
	name R2-12-47-2_node_228;
};

object node {
	voltage_C -3600+6235j;
	phases CN;
	nominal_voltage 7200;
	name R2-12-47-2_node_229;
};

object node {
	phases AN;
	nominal_voltage 7200;
	name R2-12-47-2_node_230;
	voltage_A 7200+0.0j;
};

object node {
	voltage_B -3600-6235j;
	phases BN;
	nominal_voltage 7200;
	name R2-12-47-2_node_231;
};

object node {
	phases AN;
	nominal_voltage 7200;
	name R2-12-47-2_node_232;
	voltage_A 7200+0.0j;
};

object node {
	phases AN;
	nominal_voltage 7200;
	name R2-12-47-2_node_233;
	voltage_A 7200+0.0j;
};

object node {
	voltage_C -3600+6235j;
	phases CN;
	nominal_voltage 7200;
	name R2-12-47-2_node_234;
};

object node {
	voltage_B -3600-6235j;
	phases BN;
	nominal_voltage 7200;
	name R2-12-47-2_node_235;
};

object node {
	phases AN;
	nominal_voltage 7200;
	name R2-12-47-2_node_236;
	voltage_A 7200+0.0j;
};

object node {
	phases AN;
	nominal_voltage 7200;
	name R2-12-47-2_node_237;
	voltage_A 7200+0.0j;
};

object node {
	voltage_B -3600-6235j;
	phases BN;
	nominal_voltage 7200;
	name R2-12-47-2_node_238;
};

object node {
	voltage_C -3600+6235j;
	phases CN;
	nominal_voltage 7200;
	name R2-12-47-2_node_239;
};

object node {
	phases ACN;
	name R2-12-47-2_node_240;
	voltage_C -3600+6235j;
	voltage_A 7200+0.0j;
	nominal_voltage 7200;
};

object node {
	voltage_C -3600+6235j;
	phases CN;
	nominal_voltage 7200;
	name R2-12-47-2_node_241;
};

object node {
	voltage_C -3600+6235j;
	phases CN;
	nominal_voltage 7200;
	name R2-12-47-2_node_242;
};

object node {
	phases ABCN;
	name R2-12-47-2_node_243;
	voltage_B -3600-6235j;
	voltage_C -3600+6235j;
	voltage_A 7200+0.0j;
	nominal_voltage 7200;
};

object node {
	phases ABCN;
	name R2-12-47-2_node_244;
	voltage_B -3600-6235j;
	voltage_C -3600+6235j;
	voltage_A 7200+0.0j;
	nominal_voltage 7200;
};

object node {
	phases ABCN;
	name R2-12-47-2_node_245;
	voltage_B -3600-6235j;
	voltage_C -3600+6235j;
	voltage_A 7200+0.0j;
	nominal_voltage 7200;
};

object node {
	phases AN;
	nominal_voltage 7200;
	name R2-12-47-2_node_246;
	voltage_A 7200+0.0j;
};

object node {
	phases AN;
	nominal_voltage 7200;
	name R2-12-47-2_node_247;
	voltage_A 7200+0.0j;
};

object node {
	phases BCN;
	name R2-12-47-2_node_248;
	voltage_B -3600-6235j;
	voltage_C -3600+6235j;
	nominal_voltage 7200;
};

object node {
	phases ABCN;
	name R2-12-47-2_node_249;
	voltage_B -3600-6235j;
	voltage_C -3600+6235j;
	voltage_A 7200+0.0j;
	nominal_voltage 7200;
};

object node {
	phases ABCN;
	name R2-12-47-2_node_250;
	parent R2-12-47-2_meter_9;
	voltage_B -3600-6235j;
	voltage_C -3600+6235j;
	voltage_A 7200+0.0j;
	nominal_voltage 7200;
};

object node {
	voltage_B -3600-6235j;
	phases BN;
	nominal_voltage 7200;
	name R2-12-47-2_node_251;
};

object node {
	voltage_C -3600+6235j;
	phases CN;
	nominal_voltage 7200;
	name R2-12-47-2_node_252;
};

object meter {
	phases ABCN;
	name R2-12-47-2_node_253;
	voltage_B -3600-6235j;
	voltage_C -3600+6235j;
	voltage_A 7200+0.0j;
	nominal_voltage 7200;
};

object overhead_line {
	phases AN;
	from R2-12-47-2_node_3;
	name R2-12-47-2_ol_1;
	to R2-12-47-2_node_247;
	length 350.880;
	configuration line_configuration_26;
	groupid Distribution_Line;
};

object overhead_line {
	phases AN;
	from R2-12-47-2_node_4;
	name R2-12-47-2_ol_2;
	to R2-12-47-2_node_236;
	length 81.510;
	configuration line_configuration_27;
	groupid Distribution_Line;
};

object overhead_line {
	phases CN;
	from R2-12-47-2_node_153;
	name R2-12-47-2_ol_3;
	to R2-12-47-2_node_160;
	length 277.760;
	configuration line_configuration_28;
	groupid Distribution_Line;
};

object overhead_line {
	phases CN;
	from R2-12-47-2_node_124;
	name R2-12-47-2_ol_4;
	to R2-12-47-2_node_128;
	length 235.430;
	configuration line_configuration_29;
	groupid Distribution_Line;
};

object overhead_line {
	phases CN;
	from R2-12-47-2_node_5;
	name R2-12-47-2_ol_5;
	to R2-12-47-2_node_161;
	length 97.930;
	configuration line_configuration_28;
	groupid Distribution_Line;
};

object overhead_line {
	phases ABCN;
	from R2-12-47-2_node_6;
	name R2-12-47-2_ol_6;
	to R2-12-47-2_node_28;
	length 160.250;
	configuration line_configuration_30;
	groupid Distribution_Line;
};

object overhead_line {
	phases ABCN;
	from R2-12-47-2_node_7;
	name R2-12-47-2_ol_7;
	to R2-12-47-2_node_73;
	length 292.430;
	configuration line_configuration_30;
	groupid Distribution_Line;
};

object overhead_line {
	phases ABCN;
	from R2-12-47-2_node_10;
	name R2-12-47-2_ol_8;
	to R2-12-47-2_node_244;
	length 1307.780;
	configuration line_configuration_32;
	groupid Distribution_Line;
};

object overhead_line {
	phases BN;
	from R2-12-47-2_node_13;
	name R2-12-47-2_ol_9;
	to R2-12-47-2_node_143;
	length 485.610;
	configuration line_configuration_35;
	groupid Distribution_Line;
};

object overhead_line {
	phases CN;
	from R2-12-47-2_node_14;
	name R2-12-47-2_ol_10;
	to R2-12-47-2_node_117;
	length 358.900;
	configuration line_configuration_36;
	groupid Distribution_Line;
};

object overhead_line {
	phases ABCN;
	from R2-12-47-2_node_15;
	name R2-12-47-2_ol_11;
	to R2-12-47-2_node_16;
	length 227.770;
	configuration line_configuration_30;
	groupid Distribution_Line;
};

object overhead_line {
	phases ABCN;
	from R2-12-47-2_node_1;
	name R2-12-47-2_ol_12;
	to R2-12-47-2_node_15;
	length 722.490;
	configuration line_configuration_32;
	groupid Distribution_Line;
};

object overhead_line {
	phases ABCN;
	from R2-12-47-2_node_18;
	name R2-12-47-2_ol_13;
	to R2-12-47-2_node_221;
	length 130.490;
	configuration line_configuration_39;
	groupid Distribution_Line;
};

object overhead_line {
	phases ABCN;
	from R2-12-47-2_node_19;
	name R2-12-47-2_ol_14;
	to R2-12-47-2_node_24;
	length 296.560;
	configuration line_configuration_40;
	groupid Distribution_Line;
};

object overhead_line {
	phases AN;
	from R2-12-47-2_node_20;
	name R2-12-47-2_ol_15;
	to R2-12-47-2_node_230;
	length 328.320;
	configuration line_configuration_41;
	groupid Distribution_Line;
};

object overhead_line {
	phases AN;
	from R2-12-47-2_node_21;
	name R2-12-47-2_ol_16;
	to R2-12-47-2_node_20;
	length 99.470;
	configuration line_configuration_41;
	groupid Distribution_Line;
};

object overhead_line {
	phases AN;
	from R2-12-47-2_node_21;
	name R2-12-47-2_ol_17;
	to R2-12-47-2_node_61;
	length 262.750;
	configuration line_configuration_42;
	groupid Distribution_Line;
};

object overhead_line {
	phases BN;
	from R2-12-47-2_node_22;
	name R2-12-47-2_ol_18;
	to R2-12-47-2_node_216;
	length 388.380;
	configuration line_configuration_35;
	groupid Distribution_Line;
};

object overhead_line {
	phases BN;
	from R2-12-47-2_node_22;
	name R2-12-47-2_ol_19;
	to R2-12-47-2_node_214;
	length 150.190;
	configuration line_configuration_35;
	groupid Distribution_Line;
};

object overhead_line {
	phases ABCN;
	from R2-12-47-2_node_25;
	name R2-12-47-2_ol_20;
	to R2-12-47-2_node_223;
	length 105.440;
	configuration line_configuration_40;
	groupid Distribution_Line;
};

object overhead_line {
	phases CN;
	from R2-12-47-2_node_29;
	name R2-12-47-2_ol_21;
	to R2-12-47-2_node_123;
	length 74.200;
	configuration line_configuration_28;
	groupid Distribution_Line;
};

object overhead_line {
	phases AN;
	from R2-12-47-2_node_186;
	name R2-12-47-2_ol_22;
	to R2-12-47-2_node_198;
	length 459.040;
	configuration line_configuration_24;
	groupid Distribution_Line;
};

object overhead_line {
	phases BN;
	from R2-12-47-2_node_31;
	name R2-12-47-2_ol_23;
	to R2-12-47-2_node_84;
	length 437.800;
	configuration line_configuration_43;
	groupid Distribution_Line;
};

object overhead_line {
	phases ABCN;
	from R2-12-47-2_node_34;
	name R2-12-47-2_ol_24;
	to R2-12-47-2_node_112;
	length 474.360;
	configuration line_configuration_45;
	groupid Distribution_Line;
};

object overhead_line {
	phases BN;
	from R2-12-47-2_node_36;
	name R2-12-47-2_ol_25;
	to R2-12-47-2_node_149;
	length 152.530;
	configuration line_configuration_43;
	groupid Distribution_Line;
};

object overhead_line {
	phases ABCN;
	from R2-12-47-2_node_38;
	name R2-12-47-2_ol_26;
	to R2-12-47-2_node_37;
	length 188.750;
	configuration line_configuration_46;
	groupid Distribution_Line;
};

object overhead_line {
	phases ABCN;
	from R2-12-47-2_node_38;
	name R2-12-47-2_ol_27;
	to R2-12-47-2_node_39;
	length 93.340;
	configuration line_configuration_30;
	groupid Distribution_Line;
};

object overhead_line {
	phases ABCN;
	from R2-12-47-2_node_44;
	name R2-12-47-2_ol_28;
	to R2-12-47-2_node_43;
	length 239.770;
	configuration line_configuration_45;
	groupid Distribution_Line;
};

object overhead_line {
	phases ABCN;
	from R2-12-47-2_node_46;
	name R2-12-47-2_ol_29;
	to R2-12-47-2_node_45;
	length 103.540;
	configuration line_configuration_45;
	groupid Distribution_Line;
};

object overhead_line {
	phases CN;
	from R2-12-47-2_node_46;
	name R2-12-47-2_ol_30;
	to R2-12-47-2_node_212;
	length 47.680;
	configuration line_configuration_28;
	groupid Distribution_Line;
};

object overhead_line {
	phases CN;
	from R2-12-47-2_node_49;
	name R2-12-47-2_ol_31;
	to R2-12-47-2_node_213;
	length 201.550;
...